Input Parameters:
   integrator                     = md
   tinit                          = 0
   dt                             = 0.01
   nsteps                         = 1000000
   init-step                      = 0
   simulation-part                = 1
   comm-mode                      = Linear
   nstcomm                        = 100
   bd-fric                        = 0
   ld-seed                        = -236032379
   emtol                          = 10
   emstep                         = 0.01
   niter                          = 20
   fcstep                         = 0
   nstcgsteep                     = 1000
   nbfgscorr                      = 10
   rtpi                           = 0.05
   nstxout                        = 0
   nstvout                        = 0
   nstfout                        = 0
   nstlog                         = 1000
   nstcalcenergy                  = 100
   nstenergy                      = 100
   nstxout-compressed             = 1000
   compressed-x-precision         = 100
   cutoff-scheme                  = Verlet
   nstlist                        = 20
   pbc                            = xyz
   periodic-molecules             = false
   verlet-buffer-tolerance        = 0.005
   rlist                          = 1.127
   coulombtype                    = Reaction-Field
   coulomb-modifier               = Potential-shift
   rcoulomb-switch                = 0
   rcoulomb                       = 1.1
   epsilon-r                      = 15
   epsilon-rf                     = inf
   vdw-type                       = Cut-off
   vdw-modifier                   = Potential-shift
   rvdw-switch                    = 0
   rvdw                           = 1.1
   DispCorr                       = No
   table-extension                = 1
   fourierspacing                 = 0.12
   fourier-nx                     = 0
   fourier-ny                     = 0
   fourier-nz                     = 0
   pme-order                      = 4
   ewald-rtol                     = 1e-05
   ewald-rtol-lj                  = 0.001
   lj-pme-comb-rule               = Geometric
   ewald-geometry                 = 0
   epsilon-surface                = 0
   tcoupl                         = Berendsen
   nsttcouple                     = 20
   nh-chain-length                = 0
   print-nose-hoover-chain-variables = false
   pcoupl                         = Berendsen
   pcoupltype                     = Semiisotropic
   nstpcouple                     = 20
   tau-p                          = 12
   compressibility (3x3):
      compressibility[    0]={ 0.00000e+00,  0.00000e+00,  0.00000e+00}
      compressibility[    1]={ 0.00000e+00,  0.00000e+00,  0.00000e+00}
      compressibility[    2]={ 0.00000e+00,  0.00000e+00,  3.00000e-04}
   ref-p (3x3):
      ref-p[    0]={ 0.00000e+00,  0.00000e+00,  0.00000e+00}
      ref-p[    1]={ 0.00000e+00,  0.00000e+00,  0.00000e+00}
      ref-p[    2]={ 0.00000e+00,  0.00000e+00,  1.00000e+00}
   refcoord-scaling               = No
   posres-com (3):
      posres-com[0]= 0.00000e+00
      posres-com[1]= 0.00000e+00
      posres-com[2]= 0.00000e+00
   posres-comB (3):
      posres-comB[0]= 0.00000e+00
      posres-comB[1]= 0.00000e+00
      posres-comB[2]= 0.00000e+00
   QMMM                           = false
   QMconstraints                  = 0
   QMMMscheme                     = 0
   MMChargeScaleFactor            = 1
qm-opts:
   ngQM                           = 0
   constraint-algorithm           = Lincs
   continuation                   = false
   Shake-SOR                      = false
   shake-tol                      = 0.0001
   lincs-order                    = 4
   lincs-iter                     = 1
   lincs-warnangle                = 30
   nwall                          = 0
   wall-type                      = 9-3
   wall-r-linpot                  = -1
   wall-atomtype[0]               = -1
   wall-atomtype[1]               = -1
   wall-density[0]                = 0
   wall-density[1]                = 0
   wall-ewald-zfac                = 3
   pull                           = true
   pull-cylinder-r                = 1.5
   pull-constr-tol                = 1e-06
   pull-print-COM                 = false
   pull-print-ref-value           = false
   pull-print-components          = false
   pull-nstxout                   = 100
   pull-nstfout                   = 100
   pull-pbc-ref-prev-step-com     = false
   pull-xout-average              = false
   pull-fout-average              = false
   pull-ngroups                   = 3
   pull-group 0:
     atom: not available
     weight: not available
     pbcatom                        = -1
   pull-group 1:
     atom (1280):
        atom[0,...,1279] = {1280,...,2559}
     weight: not available
     pbcatom                        = -1
   pull-group 2:
     atom (1):
        atom[0]=2560
     weight: not available
     pbcatom                        = -1
   pull-ncoords                   = 1
   pull-coord 0:
   type                           = external-potential
   potential-provider             = awh
   geometry                       = distance
   group[0]                       = 1
   group[1]                       = 2
   dim (3):
      dim[0]=0
      dim[1]=0
      dim[2]=1
   origin (3):
      origin[0]= 0.00000e+00
      origin[1]= 0.00000e+00
      origin[2]= 0.00000e+00
   vec (3):
      vec[0]= 0.00000e+00
      vec[1]= 0.00000e+00
      vec[2]= 0.00000e+00
   start                          = false
   init                           = 0.1
   rate                           = 0
   k                              = 1000
   kB                             = 1000
   awh                            = true
   awh-potential                  = convolved
   awh-seed                       = 2129085060
   awh-nstout                     = 25000
   awh-nstsample                  = 10
   awh-nsamples-update            = 10
   awh-share-bias-multisim        = false
   awh-nbias                      = 1
   awh1-error-init                = 10
   awh1-growth                    = exp-linear
   awh1-target                    = constant
   awh1-target-beta-scalng        = 0
   awh1-target-cutoff             = 0
   awh1-user-data                 = false
   awh1-share-group               = 0
   awh1-equilibrate-histogram     = false
   awh1-ndim                      = 1
   awh1-dim1:
    coord-provider                 = pull
    coord-index                    = 1
    start                          = 0
    end                            = 3
    period                         = 0
    force-constant                 = 1000
    diffusion                      = 0.001
    start                          = 0
    end                            = 3
    cover-diameter                 = 0
   rotation                       = false
   interactiveMD                  = false
   disre                          = No
   disre-weighting                = Conservative
   disre-mixed                    = false
   dr-fc                          = 1000
   dr-tau                         = 0
   nstdisreout                    = 100
   orire-fc                       = 0
   orire-tau                      = 0
   nstorireout                    = 100
   free-energy                    = no
   cos-acceleration               = 0
   deform (3x3):
      deform[    0]={ 0.00000e+00,  0.00000e+00,  0.00000e+00}
      deform[    1]={ 0.00000e+00,  0.00000e+00,  0.00000e+00}
      deform[    2]={ 0.00000e+00,  0.00000e+00,  0.00000e+00}
   simulated-tempering            = false
   swapcoords                     = no
   userint1                       = 0
   userint2                       = 0
   userint3                       = 0
   userint4                       = 0
   userreal1                      = 0
   userreal2                      = 0
   userreal3                      = 0
   userreal4                      = 0
   applied-forces:
     electric-field:
       x:
         E0                       = 0
         omega                    = 0
         t0                       = 0
         sigma                    = 0
       y:
         E0                       = 0
         omega                    = 0
         t0                       = 0
         sigma                    = 0
       z:
         E0                       = 0
         omega                    = 0
         t0                       = 0
         sigma                    = 0
     density-guided-simulation:
       active                     = false
       group                      = protein
       similarity-measure         = inner-product
       atom-spreading-weight      = unity
       force-constant             = 1e+09
       gaussian-transform-spreading-width = 0.2
       gaussian-transform-spreading-range-in-multiples-of-width = 4
       reference-density-filename = reference.mrc
       nst                        = 1
       normalize-densities        = true
       adaptive-force-scaling     = false
       adaptive-force-scaling-time-constant = 4
grpopts:
   nrdf:        7680
   ref-t:         300
   tau-t:           2
annealing:          No
annealing-npoints:           0
   acc:	           0           0           0
   nfreeze:           N           N           N
   energygrp-flags[  0]: 0 0 0
   energygrp-flags[  1]: 0 0 0
   energygrp-flags[  2]: 0 0 0

Changing nstlist from 20 to 50, rlist from 1.127 to 1.245

Using 1 MPI thread

Non-default thread affinity set, disabling internal thread affinity

Using 8 OpenMP threads

System total charge: 0.000
Reaction-Field:
epsRF = 0, rc = 1.1, krf = 0.375657, crf = 1.36364, epsfac = 9.26236
The electrostatics potential has its minimum at r = 1.1
Potential shift: LJ r^-12: -3.186e-01 r^-6: -5.645e-01

Using SIMD 4x8 nonbonded short-range kernels

Using a dual 4x8 pair-list setup updated with dynamic pruning:
  outer list: updated every 50 steps, buffer 0.145 nm, rlist 1.245 nm
  inner list: updated every 10 steps, buffer 0.001 nm, rlist 1.101 nm
At tolerance 0.005 kJ/mol/ps per atom, equivalent classical 1x1 list would be:
  outer list: updated every 50 steps, buffer 0.254 nm, rlist 1.354 nm
  inner list: updated every 10 steps, buffer 0.026 nm, rlist 1.126 nm

Using full Lennard-Jones parameter combination matrix

Removing pbc first time

Will apply potential COM pulling
with 1 pull coordinate and 2 groups
Cosine weighting is used for group 1

Pull group 1:  1280 atoms, mass 92160.000, cosine weighting will be used
Pull group 2:     1 atoms, mass    72.000

There are: 2561 Atoms

awh1: initial force correlation block length = 0.1 ps
awh1: force correlation number of blocks = 64Center of mass motion removal mode is Linear
We have the following groups for center of mass motion removal:
  0:  rest
Initial temperature: 304.491 K

Started mdrun on rank 0 Thu Feb 27 13:24:44 2020

           Step           Time
              0        0.00000

   Energies (kJ/mol)
           Bond       G96Angle        LJ (SR)   Coulomb (SR)   COM Pull En.
    1.44054e+03    8.14738e+02   -5.28902e+04    0.00000e+00    7.96393e+00
      Potential    Kinetic En.   Total Energy  Conserved En.    Temperature
   -5.06270e+04    9.72883e+03   -4.08982e+04   -4.08989e+04    3.04716e+02
   -3.86834e+01

	<====  A V E R A G E S  ====>

	Statistics over 1000001 steps using 10001 frames

   Energies (kJ/mol)
           Bond       G96Angle        LJ (SR)   Coulomb (SR)   COM Pull En.
    1.49563e+03    7.92138e+02   -5.28981e+04    0.00000e+00   -2.95907e+02
      Potential    Kinetic En.   Total Energy  Conserved En.    Temperature
   -5.09062e+04    9.55531e+03   -4.13509e+04   -8.94062e+04    2.99281e+02
 Pressure (bar)
   -6.75497e+01

          Box-X          Box-Y          Box-Z
    6.00000e+00    6.00000e+00    8.51689e+00

   Total Virial (kJ/mol)
    4.12296e+03    3.44040e+00    6.08928e+00
    3.44043e+00    4.13310e+03    3.20469e+00
    6.08922e+00    3.20478e+00    3.17036e+03

   Pressure (bar)
   -1.01670e+02   -2.70356e-01   -6.67340e-01
   -2.70358e-01   -1.02571e+02   -2.64011e-01
   -6.67334e-01   -2.64022e-01    1.59209e+00

  Epot (kJ/mol)        Coul-SR          LJ-SR
            B-B    0.00000e+00    0.00000e+00
            B-W    0.00000e+00   -2.81064e+01
           B-HD    0.00000e+00   -7.57355e+00
            W-W    0.00000e+00   -3.19004e+04
           W-HD    0.00000e+00   -1.36382e+03
          HD-HD    0.00000e+00   -1.95982e+04
